Pcp_File_Version=4
*** BLOCK I: ATMOSPHERIC INFORMATION  **********************************
   MaxAL                    (MaxAL = number of atmospheric data-records)
     30
 DailyVar  SinusVar  lLay  lBCCycles lInterc lDummy  lDummy  lDummy  lDummy  lDummy
       f       f       f       f       f       f       f       f       f       f
 hCritS                 (max. allowed pressure head at the soil surface)
      0
   tAtm   Prec   rSoil   rRoot   hCritA   rB   hB   ht   RootDepth
   1   0.777133835674   0.584546188305   0.802980351972   100000   0   0   0
   2   0.776820595169   0.425905641085   0.940189373822   100000   0   0   0
   3   0.394175975111   0.405431504238   0.442614487602   100000   0   0   0
   4   0.837390129702   0.675058482653   0.524244529746   100000   0   0   0
   5   0.893840980383   0.130326429889   0.123180132481   100000   0   0   0
   6   0.645334753071   0.521017382065   0.196909890182   100000   0   0   0
   7   0.420437803057   0.204116467371   0.420334462817   100000   0   0   0
   8   0.178485623976   0.0280588408781   0.792447664929   100000   0   0   0
   9   0.988539518755   0.238234701564   0.512821803494   100000   0   0   0
   10   0.175488435844   0.599652877683   0.988822891319   100000   0   0   0
   11   0.348239235293   0.202066364648   0.773539045383   100000   0   0   0
   12   0.165718711257   0.823928864657   0.576601969977   100000   0   0   0
   13   0.527060151892   0.97691090505   0.51712302044   100000   0   0   0
   14   0.731074869572   0.818855588756   0.304932444994   100000   0   0   0
   15   0.583011711435   0.235395959453   0.106208021203   100000   0   0   0
   16   0.597146716241   0.161320724541   0.551966715004   100000   0   0   0
   17   0.666097407166   0.734469535352   0.617741159968   100000   0   0   0
   18   0.0710696405107   0.202329853544   0.562610256272   100000   0   0   0
   19   0.621493717901   0.0506222457859   0.0906563181155   100000   0   0   0
   20   0.987191441872   0.136872996866   0.378723796141   100000   0   0   0
   21   0.313647958846   0.500983548347   0.494488476937   100000   0   0   0
   22   0.477118446243   0.658164734788   0.715766417816   100000   0   0   0
   23   0.2864366502   0.861082017183   0.0614913738621   100000   0   0   0
   24   0.96100576357   0.501434495864   0.555697995624   100000   0   0   0
   25   0.776924967427   0.647763607808   0.570372426261   100000   0   0   0
   26   0.199335871362   0.0967454684334   0.994634854785   100000   0   0   0
   27   0.634478331127   0.477495173701   0.513871185284   100000   0   0   0
   28   0.706210200593   0.907360616993   0.287044998435   100000   0   0   0
   29   0.444676532313   0.154492472057   0.964791069247   100000   0   0   0
   30   0.733512079138   0.50702889273   0.319360264191   100000   0   0   0
end*** END OF INPUT FILE 'ATMOSPH.IN' **********************************