Pcp_File_Version=4
*** BLOCK A: BASIC INFORMATION *****************************************
Heading
Welcome to HYDRUS-1D
LUnit  TUnit  MUnit  (indicated units are obligatory for all input data)
cm
days
mmol
lWat   lChem lTemp  lSink lRoot lShort lWDep lScreen lVariabBC lEquil lInverse
 t     f     f      t     f     t      f     t       t         t         f
lSnow  lHP1   lMeteo  lVapor lActiveU lFluxes lIrrig  lDummy  lDummy  lDummy
 f       f       f       f       f       t       f       f       f       f
NMat    NLay  CosAlpha
  1       1       1
*** BLOCK B: WATER FLOW INFORMATION ************************************
MaxIt   TolTh   TolH       (maximum number of iterations and tolerances)
  10    0.001      1
TopInf WLayer KodTop InitCond
 t     t      -1       t
BotInf qGWLF FreeD SeepF KodBot DrainF  hSeep
 f     f     t     f     -1      f      0
    hTab1   hTabN
    1e-006   10000
    Model   Hysteresis
      0          0
   thr     ths    Alfa      n         Ks       l
   0.01     0.4   0.011     1.3         67     0.5 
*** BLOCK C: TIME INFORMATION ******************************************
        dt       dtMin       dtMax     DMul    DMul2  ItMin ItMax  MPL
      0.001      1e-005           5     1.3     0.7     3     7     1
      tInit        tMax
          0         121
  lPrintD  nPrintSteps tPrintInterval lEnter
     t           1             1       f
TPrint(1),TPrint(2),...,TPrint(MPL)
         90 
*** BLOCK G: ROOT WATER UPTAKE INFORMATION *****************************
     Model  (0 - Feddes, 1 - S shape)  cRootMax    OmegaC
        1                                   1
       h50       P3
   -25000         3
*** END OF INPUT FILE 'SELECTOR.IN' ************************************
