Pcp_File_Version=4
*** BLOCK I: ATMOSPHERIC INFORMATION  **********************************
   MaxAL                    (MaxAL = number of atmospheric data-records)
     93
 DailyVar  SinusVar  lLay  lBCCycles lInterc lDummy  lDummy  lDummy  lDummy  lDummy
       f       f       f       f       f       f       f       f       f       f
 hCritS                 (max. allowed pressure head at the soil surface)
      0
   tAtm   Prec   rSoil   rRoot   hCritA   rB   hB   ht   RootDepth
   1   0.354728508596   0.928854296589   0.132127356534   100000   0   0   0
   2   0.232595244196   0.499400599444   0.773062766925   100000   0   0   0
   3   0.717905643656   0.884726348996   0.519114164406   100000   0   0   0
   4   0.244371651696   0.476028840267   0.364341320992   100000   0   0   0
   5   0.94170665274   0.0162241932849   0.456282417478   100000   0   0   0
   6   0.385218621829   0.638355178166   0.742240752639   100000   0   0   0
   7   0.5996846446   0.962262662438   0.102285443221   100000   0   0   0
   8   0.150479696651   0.276074764874   0.97811837433   100000   0   0   0
   9   0.139059421152   0.134768236626   0.93025457015   100000   0   0   0
   10   0.514903284852   0.618789670088   0.420083046724   100000   0   0   0
   11   0.823929208574   0.171224165332   0.18669351447   100000   0   0   0
   12   0.329107317759   0.879567144205   0.272705272053   100000   0   0   0
   13   0.184138861446   0.464113169445   0.549750563088   100000   0   0   0
   14   0.100183483834   0.623298296319   0.261937568465   100000   0   0   0
   15   0.18159112723   0.928886542898   0.133507159267   100000   0   0   0
   16   0.198877557481   0.304869480317   0.222610172128   100000   0   0   0
   17   0.653932629824   0.642940615949   0.92503055194   100000   0   0   0
   18   0.566581027759   0.565176507163   0.560379216585   100000   0   0   0
   19   0.606689645217   0.791180992876   0.761547465278   100000   0   0   0
   20   0.349482147779   0.645508027477   0.712563382783   100000   0   0   0
   21   0.298459281028   0.263830260272   0.145082199882   100000   0   0   0
   22   0.598979332675   0.475475324733   0.64431574786   100000   0   0   0
   23   0.900327983499   0.230874436647   0.107098414683   100000   0   0   0
   24   0.325246430575   0.804190742943   0.168367857422   100000   0   0   0
   25   0.00703072806623   0.701005258625   0.908196680407   100000   0   0   0
   26   0.246866902899   0.0931729771404   0.910381702394   100000   0   0   0
   27   0.53569762441   0.372266005902   0.91112048964   100000   0   0   0
   28   0.994016847648   0.0753263457949   0.243363706968   100000   0   0   0
   29   0.939163032252   0.0239281960661   0.752245233936   100000   0   0   0
   30   0.621730415758   0.502557303476   0.659815228166   100000   0   0   0
   31   0.529323446534   0.22907717623   0.58486196869   100000   0   0   0
   32   0.543137807905   0.383268334734   0.650374580466   100000   0   0   0
   33   0.510068897599   0.442809587918   0.812688280454   100000   0   0   0
   34   0.991692390263   0.278952155915   0.85490293849   100000   0   0   0
   35   0.267507250889   0.266472983817   0.250816676183   100000   0   0   0
   36   0.401435567859   0.0717560606661   0.35048711199   100000   0   0   0
   37   0.867540532812   0.736897643922   0.867066608914   100000   0   0   0
   38   0.385107931607   0.12041756122   0.815305437281   100000   0   0   0
   39   0.386110207536   0.108444694534   0.729669032186   100000   0   0   0
   40   0.567262221766   0.756311214465   0.709684035091   100000   0   0   0
   41   0.532330184804   0.720602370193   0.534472292715   100000   0   0   0
   42   0.75551686551   0.160702854451   0.388748209232   100000   0   0   0
   43   0.668504999262   0.865302543709   0.216390063013   100000   0   0   0
   44   0.282320172479   0.658856545884   0.209864922571   100000   0   0   0
   45   0.0992638553063   0.356500612347   0.886510556245   100000   0   0   0
   46   0.547429159877   0.034509233152   0.774475584678   100000   0   0   0
   47   0.574550907804   0.23238650282   0.802100529938   100000   0   0   0
   48   0.67291483591   0.793465219357   0.466927908515   100000   0   0   0
   49   0.369508088612   0.508736859635   0.392072971973   100000   0   0   0
   50   0.631772879623   0.368205874609   0.447640419524   100000   0   0   0
   51   0.213856219995   0.711008558219   0.514861588171   100000   0   0   0
   52   0.0827941599722   0.985553728227   0.82497956372   100000   0   0   0
   53   0.70415132272   0.491950534554   0.211899493703   100000   0   0   0
   54   0.60413157048   0.225003812421   0.577898294106   100000   0   0   0
   55   0.829716675976   0.0258442795888   0.404888752873   100000   0   0   0
   56   0.673273326594   0.509181955541   0.572714789   100000   0   0   0
   57   0.465656050535   0.841734272452   0.264617058477   100000   0   0   0
   58   0.338108142181   0.819868941602   0.638590045665   100000   0   0   0
   59   0.368127461307   0.0507088968242   0.68064931529   100000   0   0   0
   60   0.0448173374628   0.92813027432   0.401991216239   100000   0   0   0
   61   0.41182630862   0.747366430399   0.713013793767   100000   0   0   0
   62   0.178048794009   0.972319785893   0.0662669866168   100000   0   0   0
   63   0.848941991292   0.213718051114   0.670312198004   100000   0   0   0
   64   0.691876137482   0.248159775657   0.931560931341   100000   0   0   0
   65   0.75456428824   0.062244130197   0.809813514125   100000   0   0   0
   66   0.522399774409   0.956659918611   0.310507184388   100000   0   0   0
   67   0.742180724973   0.741981011426   0.633581568915   100000   0   0   0
   68   0.638425725084   0.183684390374   0.157802551623   100000   0   0   0
   69   0.984141002313   0.635052142457   0.989261254218   100000   0   0   0
   70   0.735304474544   0.168611561703   0.540546433491   100000   0   0   0
   71   0.597419319228   0.85712402736   0.473399476851   100000   0   0   0
   72   0.917621326342   0.954061896352   0.995264258174   100000   0   0   0
   73   0.547433469675   0.882124684486   0.967678679359   100000   0   0   0
   74   0.184364127887   0.99233862865   0.750967740915   100000   0   0   0
   75   0.654689968239   0.0983537715763   0.450172913281   100000   0   0   0
   76   0.0166636980565   0.111364765927   0.518016053774   100000   0   0   0
   77   0.893049815667   0.768650143586   0.375058039148   100000   0   0   0
   78   0.518731808374   0.289762183576   0.374167399276   100000   0   0   0
   79   0.0719256420977   0.136728365089   0.90728903038   100000   0   0   0
   80   0.326476506765   0.399456442759   0.94202425778   100000   0   0   0
   81   0.226380459329   0.200914956912   0.725082870746   100000   0   0   0
   82   0.0685089172952   0.360311301096   0.547212744857   100000   0   0   0
   83   0.363711935755   0.128682037864   0.109474465937   100000   0   0   0
   84   0.716501713174   0.402668529641   0.982827617461   100000   0   0   0
   85   0.00396813210937   0.352438908906   0.503629338325   100000   0   0   0
   86   0.12246441542   0.901015111125   0.577237316042   100000   0   0   0
   87   0.745636705353   0.918835471242   0.474421627983   100000   0   0   0
   88   0.100495864772   0.000153381991214   0.0394979447849   100000   0   0   0
   89   0.203991206863   0.0894114218251   0.0415119608955   100000   0   0   0
   90   0.716112908286   0.732053126168   0.320829545186   100000   0   0   0
   91   0.757789529431   0.539764653417   0.967532572985   100000   0   0   0
   92   0.120023787887   0.732365741583   0.618288091738   100000   0   0   0
   93   0.672192375684   0.332451455576   0.745007282589   100000   0   0   0
end*** END OF INPUT FILE 'ATMOSPH.IN' **********************************