Pcp_File_Version=4
* METEOROLOGICAL PARAMETERS AND INFORMATION |||||||||||||||||||||||||||||||
 MeteoRecords Radiation Penman-Hargreaves
          365        0       t
  lEnBal  lDaily  lDummy  lDummy  lDummy  lDummy  lDummy  lDummy  lDummy  lDummy
       f       f       f       f       f       t       f       f       f       f
 Latitude  Altitude
    33.68        110
 ShortWaveRadA  ShortWaveRadB
          0.25            0.5
 LongWaveRadA   LongWaveRadB
           0.9            0.1
 LongWaveRadA1  LongWaveRadB1
          0.34         -0.139
 WindHeight     TempHeight
        200            200
 iCrop (=0: no crop, =1: constant, =2: table, =3: daily)  SunShine  RelativeHum
         0                                                0         0
    Albedo
      0.23
Daily values
       t        Rad        TMax        TMin     RHMean      Wind    SunHours CropHeight     Albedo   LAI(SCF)      rRoot
      [T]  [MJ/m2/d]       [C]         [C]       [%]     [km/d]     [hour]      [L]           [-]        [-]        [L]
         1          0    19.3886    9.47817          0          0          0 
         2          0    20.5778    10.6674          0          0          0 
         3          0    20.9743    10.6674          0          0          0 
         4          0    17.8029    8.68533          0          0          0 
         5          0    17.0101    8.28892          0          0          0 
         6          0    18.5958    8.28892          0          0          0 
         7          0    17.0101    9.08175          0          0          0 
         8          0    17.8029     8.8652          0          0          0 
         9          0    17.4917    8.15023          0          0          0 
        10          0    16.5048    7.37633          0          0          0 
        11          0    18.9259    6.93968          0          0          0 
        12          0    18.0597     8.8297          0          0          0 
        13          0    18.5958    9.08175          0          0          0 
        14          0     19.785     7.8925          0          0          0 
        15          0    21.7671    11.0638          0          0          0 
        16          0    21.7801     10.484          0          0          0 
        17          0    21.1695    10.0509          0          0          0 
        18          0    21.6523    10.1929          0          0          0 
        19          0    20.6299     11.052          0          0          0 
        20          0    21.3707    10.0083          0          0          0 
        21          0    21.7671    12.2531          0          0          0 
        22          0    21.3707    11.4602          0          0          0 
        23          0    20.5778    9.47817          0          0          0 
        24          0    17.8029    12.6495          0          0          0 
        25          0    20.9743    12.2531          0          0          0 
        26          0     19.785    9.08175          0          0          0 
        27          0     19.785    11.0638          0          0          0 
        28          0    20.1814    9.47817          0          0          0 
        29          0    20.1814    9.47817          0          0          0 
        30          0    20.9743     10.271          0          0          0 
        31          0    16.6137    11.8567          0          0          0 
        32          0    16.2173    9.87458          0          0          0 
        33          0    15.4244     7.8925          0          0          0 
        34          0    14.6316    7.49608          0          0          0 
        35          0     15.028    5.11758          0          0          0 
        36          0    15.4244    9.47817          0          0          0 
        37          0    14.5381     7.4381          0          0          0 
        38          0    16.4338     8.8936          0          0          0 
        39          0     18.578    8.45624          0          0          0 
        40          0    20.1897    10.1574          0          0          0 
        41          0    20.9743    11.0378          0          0          0 
        42          0    20.9743    12.6495          0          0          0 
        43          0    21.8085    11.3715          0          0          0 
        44          0    23.1007    11.8756          0          0          0 
        45          0    24.0805    12.4862          0          0          0 
        46          0    25.2733    12.8909          0          0          0 
        47          0    23.6971    13.1039          0          0          0 
        48          0    24.9384    14.2352          0          0          0 
        49          0    24.1456    11.8567          0          0          0 
        50          0    22.1635    13.0459          0          0          0 
        51          0    20.9743    12.2531          0          0          0 
        52          0    20.9743    10.6674          0          0          0 
        53          0    22.1635    9.47817          0          0          0 
        54          0    22.1635    11.0638          0          0          0 
        55          0    23.6403    11.9892          0          0          0 
        56          0    20.7861    13.2601          0          0          0 
        57          0    21.8937    11.9182          0          0          0 
        58          0    21.0488     9.4474          0          0          0 
        59          0    22.5599    10.2284          0          0          0 
        60          0    18.5958    11.4602          0          0          0 
        61          0    17.0101    11.0638          0          0          0 
        62          0    20.5778    11.4602          0          0          0 
        63          0    20.5778    12.6495          0          0          0 
        64          0    22.9563    12.2531          0          0          0 
        65          0    22.1635    13.4423          0          0          0 
        66          0    21.7671    11.0638          0          0          0 
        67          0    21.7671    13.0459          0          0          0 
        68          0    13.0459    13.0459          0          0          0 
        69          0    21.7671    11.0638          0          0          0 
        70          0    21.7671    9.47817          0          0          0 
        71          0    22.1635    12.6495          0          0          0 
        72          0    21.7671    13.0459          0          0          0 
        73          0    20.1814    12.6495          0          0          0 
        74          0    22.5599    11.4602          0          0          0 
        75          0    21.7671    11.0638          0          0          0 
        76          0    23.3528    9.47817          0          0          0 
        77          0    21.7671    12.2531          0          0          0 
        78          0    22.1635     10.271          0          0          0 
        79          0     22.909    11.3786          0          0          0 
        80          0    22.7812    11.8756          0          0          0 
        81          0    22.4972     9.3267          0          0          0 
        82          0    23.4131    12.5075          0          0          0 
        83          0    25.2449    13.5938          0          0          0 
        84          0    24.7976    14.3464          0          0          0 
        85          0    20.7932     10.484          0          0          0 
        86          0    18.9117     9.0498          0          0          0 
        87          0    21.4109     9.9941          0          0          0 
        88          0     24.258    12.6495          0          0          0 
        89          0    22.4759    12.0602          0          0          0 
        90          0    22.6818    11.0662          0          0          0 
        91          0    21.0417    7.67808          0          0          0 
        92          0    17.0101    10.1077          0          0          0 
        93          0    18.1993    8.28892          0          0          0 
        94          0    20.9743    9.47817          0          0          0 
        95          0    20.5778    11.0638          0          0          0 
        96          0      22.98    12.2519          0          0          0 
        97          0    25.9407    13.8494          0          0          0 
        98          0    27.7867    14.9002          0          0          0 
        99          0    27.7583    15.9226          0          0          0 
       100          0    28.6742    13.9488          0          0          0 
       101          0    27.8577    17.1083          0          0          0 
       102          0    24.7195    13.1039          0          0          0 
       103          0    24.1586    11.4638          0          0          0 
       104          0     24.187    14.7298          0          0          0 
       105          0     25.252    13.7784          0          0          0 
       106          0    26.4661    13.9772          0          0          0 
       107          0    26.9489    11.7762          0          0          0 
       108          0    22.3197    14.8434          0          0          0 
       109          0    23.6332    15.9155          0          0          0 
       110          0    26.3809    14.2186          0          0          0 
       111          0    28.4541    17.2503          0          0          0 
       112          0    27.3169    15.8208          0          0          0 
       113          0    23.8888    12.0673          0          0          0 
       114          0    25.5715    13.6009          0          0          0 
       115          0    26.2744    12.5501          0          0          0 
       116          0    18.4218    11.7478          0          0          0 
       117          0    21.0062       8.78          0          0          0 
       118          0    24.5491     9.6036          0          0          0 
       119          0    23.5906    16.1001          0          0          0 
       120          0    24.0237     14.034          0          0          0 
       121          0     26.246    17.1367          0          0          0 
       122          0      27.95    16.4622          0          0          0 
       123          0    29.5262    16.8527          0          0          0 
       124          0    29.4978    13.4163          0          0          0 
       125          0    28.2056    14.7156          0          0          0 
       126          0    23.7042    13.6719          0          0          0 
       127          0    19.9057    11.9182          0          0          0 
       128          0    22.9563    12.6566          0          0          0 
       129          0    24.1456    13.4423          0          0          0 
       130          0    26.1277    13.8387          0          0          0 
       131          0    21.3707    17.0101          0          0          0 
       132          0     24.542    14.2352          0          0          0 
       133          0    24.1456    16.2173          0          0          0 
       134          0    27.3169    17.4065          0          0          0 
       135          0    29.6954    17.0101          0          0          0 
       136          0    30.4883    17.4065          0          0          0 
       137          0    30.4883    18.1993          0          0          0 
       138          0     29.299    16.2173          0          0          0 
       139          0    28.9026    17.0101          0          0          0 
       140          0    27.3169    16.6137          0          0          0 
       141          0    26.1277    16.6137          0          0          0 
       142          0    25.7313    14.2352          0          0          0 
       143          0     24.542    15.4244          0          0          0 
       144          0    26.0827    13.7429          0          0          0 
       145          0    28.1559    18.9046          0          0          0 
       146          0    30.5628    17.1367          0          0          0 
       147          0    32.5934    17.9106          0          0          0 
       148          0    31.2941    18.1591          0          0          0 
       149          0    28.7026    21.8511          0          0          0 
       150          0    31.8444    21.0559          0          0          0 
       151          0    32.5508    21.5529          0          0          0 
       152          0    31.4929     18.862          0          0          0 
       153          0    32.9342    19.7246          0          0          0 
       154          0    32.6893    19.1637          0          0          0 
       155          0    32.3236    19.1105          0          0          0 
       156          0    32.3094    18.8975          0          0          0 
       157          0    31.9686    20.4347          0          0          0 
       158          0    31.4042     19.146          0          0          0 
       159          0    31.7627    20.1577          0          0          0 
       160          0    33.3602    20.1507          0          0          0 
       161          0    32.7567    22.5221          0          0          0 
       162          0     31.177    22.2878          0          0          0 
       163          0    32.1887    18.7413          0          0          0 
       164          0    32.0076    20.6299          0          0          0 
       165          0    30.3533     18.223          0          0          0 
       166          0     29.764    15.5818          0          0          0 
       167          0    31.0634    15.8552          0          0          0 
       168          0    30.7616    18.3615          0          0          0 
       169          0    29.3629    18.4538          0          0          0 
       170          0    30.6409    20.2288          0          0          0 
       171          0    33.1223    21.9079          0          0          0 
       172          0    32.5153     21.489          0          0          0 
       173          0    32.1852      20.74          0          0          0 
       174          0    31.9047    18.0171          0          0          0 
       175          0    31.3296      18.01          0          0          0 
       176          0    32.0538    19.1673          0          0          0 
       177          0    31.4148    17.9354          0          0          0 
       178          0    30.4599    19.6146          0          0          0 
       179          0    32.2065    20.1222          0          0          0 
       180          0    32.4976    20.7754          0          0          0 
       181          0    33.0798    22.7421          0          0          0 
       182          0    33.3034    21.6061          0          0          0 
       183          0    33.1152    23.0084          0          0          0 
       184          0    33.0088    22.0357          0          0          0 
       185          0    29.9202    22.0215          0          0          0 
       186          0    31.3545    23.2108          0          0          0 
       187          0    31.8514    22.6889          0          0          0 
       188          0    32.1283    23.9314          0          0          0 
       189          0    31.5177    23.2356          0          0          0 
       190          0    30.1474    20.8571          0          0          0 
       191          0    31.3473     23.225          0          0          0 
       192          0    32.4372    22.3375          0          0          0 
       193          0      32.81    23.7468          0          0          0 
       194          0     33.275    23.1824          0          0          0 
       195          0    30.8894     22.412          0          0          0 
       196          0    29.6078    21.4855          0          0          0 
       197          0    31.2018     20.889          0          0          0 
       198          0    31.7307    22.2771          0          0          0 
       199          0    31.5958    21.1304          0          0          0 
       200          0    31.6243    23.7965          0          0          0 
       201          0    32.2597    21.9434          0          0          0 
       202          0    32.6076    20.4489          0          0          0 
       203          0    35.2133    24.1444          0          0          0 
       204          0    34.9683    25.5679          0          0          0 
       205          0    35.4121    25.3904          0          0          0 
       206          0    33.4667     23.406          0          0          0 
       207          0    33.2999     22.664          0          0          0 
       208          0    31.5781     21.915          0          0          0 
       209          0    31.7733    22.7457          0          0          0 
       210          0    32.7887    23.9846          0          0          0 
       211          0    33.9175    24.7799          0          0          0 
       212          0    32.5934     23.335          0          0          0 
       213          0    31.2551    23.7468          0          0          0 
       214          0    29.7285    20.1968          0          0          0 
       215          0    29.3842    20.1755          0          0          0 
       216          0    30.4066    20.4772          0          0          0 
       217          0     31.326    19.9447          0          0          0 
       218          0    32.2384    22.5043          0          0          0 
       219          0    31.2551    21.7943          0          0          0 
       220          0    31.6278    22.0606          0          0          0 
       221          0    31.3687    21.5387          0          0          0 
       222          0    31.6952    22.5256          0          0          0 
       223          0    32.3271    24.1196          0          0          0 
       224          0    29.6859    20.0619          0          0          0 
       225          0    27.8967     19.288          0          0          0 
       226          0    30.9959    21.8369          0          0          0 
       227          0    31.5177    21.1624          0          0          0 
       228          0    32.5188    22.0392          0          0          0 
       229          0     33.275    22.2451          0          0          0 
       230          0    29.0114    21.4996          0          0          0 
       231          0    24.7017    18.6099          0          0          0 
       232          0    28.6565    18.9685          0          0          0 
       233          0    26.1892    18.3011          0          0          0 
       234          0    27.8719    18.4928          0          0          0 
       235          0    28.6316    19.1602          0          0          0 
       236          0    30.3675    20.4701          0          0          0 
       237          0    30.0835    21.5032          0          0          0 
       238          0    29.4659    20.6228          0          0          0 
       239          0    30.3107    19.5117          0          0          0 
       240          0    31.9083    21.2369          0          0          0 
       241          0    32.8312    22.3445          0          0          0 
       242          0    32.9874    21.9931          0          0          0 
       243          0    32.4408    20.2358          0          0          0 
       244          0    32.4762    18.2621          0          0          0 
       245          0     32.778    21.4571          0          0          0 
       246          0    32.8206    21.4109          0          0          0 
       247          0    32.0609    23.0936          0          0          0 
       248          0    30.1546    20.4666          0          0          0 
       249          0    31.8337    20.6903          0          0          0 
       250          0    31.2515    22.3445          0          0          0 
       251          0    25.0035    18.5958          0          0          0 
       252          0    25.7313    20.1814          0          0          0 
       253          0    28.3298    20.1814          0          0          0 
       254          0    29.9096     19.785          0          0          0 
       255          0    31.9544    20.5625          0          0          0 
       256          0    29.4268      20.74          0          0          0 
       257          0    29.7782    21.0737          0          0          0 
       258          0     31.216    23.0723          0          0          0 
       259          0    27.1868    21.1553          0          0          0 
       260          0    25.5573    20.8251          0          0          0 
       261          0    27.9713    19.8382          0          0          0 
       262          0    28.7949    20.7648          0          0          0 
       263          0    29.7854     20.534          0          0          0 
       264          0    29.3061     20.566          0          0          0 
       265          0    29.9841    21.4606          0          0          0 
       266          0    30.6728    21.1127          0          0          0 
       267          0    31.8124    20.9387          0          0          0 
       268          0    31.1805    22.5682          0          0          0 
       269          0    29.9593    20.3992          0          0          0 
       270          0    26.2673     18.546          0          0          0 
       271          0    25.1845    16.6137          0          0          0 
       272          0    25.0106    14.6316          0          0          0 
       273          0    25.2768    15.8835          0          0          0 
       274          0    26.0969    16.0469          0          0          0 
       275          0    27.1087    18.0455          0          0          0 
       276          0     29.796    16.3664          0          0          0 
       277          0    29.5475    18.1804          0          0          0 
       278          0    27.7086    16.7143          0          0          0 
       279          0    26.7253    17.7437          0          0          0 
       280          0    25.4118    18.6206          0          0          0 
       281          0    20.3743     17.158          0          0          0 
       282          0     22.625     16.274          0          0          0 
       283          0    24.8686    16.6137          0          0          0 
       284          0    26.3064    17.0101          0          0          0 
       285          0    26.3667    16.9911          0          0          0 
       286          0    25.4118    15.9865          0          0          0 
       287          0    27.0767    15.6457          0          0          0 
       288          0    26.3703    17.3178          0          0          0 
       289          0     26.459    16.4693          0          0          0 
       290          0    25.9549    17.3071          0          0          0 
       291          0    27.0341    17.2574          0          0          0 
       292          0      27.24    16.5296          0          0          0 
       293          0    25.8377    16.7568          0          0          0 
       294          0    25.5786    17.4881          0          0          0 
       295          0    26.9276    17.0089          0          0          0 
       296          0    27.2826    16.9415          0          0          0 
       297          0    28.5357    17.1828          0          0          0 
       298          0    28.7594    17.9319          0          0          0 
       299          0    25.6283    17.0515          0          0          0 
       300          0    24.5846    16.6539          0          0          0 
       301          0    25.3195    15.1167          0          0          0 
       302          0    26.8957    15.9191          0          0          0 
       303          0    27.4282    16.8776          0          0          0 
       304          0    27.6341    18.5496          0          0          0 
       305          0    22.4404    15.1487          0          0          0 
       306          0     19.327    10.5834          0          0          0 
       307          0    20.0513    10.3668          0          0          0 
       308          0     21.805    12.4258          0          0          0 
       309          0    24.4746    14.2186          0          0          0 
       310          0     24.258    13.7323          0          0          0 
       311          0     24.258    13.1394          0          0          0 
       312          0    26.1147    14.2364          0          0          0 
       313          0    24.6911    14.6233          0          0          0 
       314          0    23.1539    13.0719          0          0          0 
       315          0    22.6215    12.9157          0          0          0 
       316          0    21.4925    13.1394          0          0          0 
       317          0    21.1304    13.9488          0          0          0 
       318          0    19.1637    13.3204          0          0          0 
       319          0    20.2216    12.5465          0          0          0 
       320          0    17.5378    10.6118          0          0          0 
       321          0    18.7022    7.63229          0          0          0 
       322          0    19.8134    6.25098          0          0          0 
       323          0    20.2536     9.7882          0          0          0 
       324          0    19.9057    9.67815          0          0          0 
       325          0    19.6182    11.4816          0          0          0 
       326          0    19.0466    9.89115          0          0          0 
       327          0    19.7779    9.79672          0          0          0 
       328          0     18.933    8.70545          0          0          0 
       329          0    18.0171    8.69374          0          0          0 
       330          0     21.986     9.3409          0          0          0 
       331          0     25.362    12.9299          0          0          0 
       332          0    24.3041    10.9065          0          0          0 
       333          0    22.4617    11.3821          0          0          0 
       334          0    21.2582    10.3846          0          0          0 
       335          0    19.9944    10.4272          0          0          0 
       336          0    19.1992    13.7145          0          0          0 
       337          0    16.9379    13.9914          0          0          0 
       338          0    16.5084    12.4684          0          0          0 
       339          0    19.0644    12.1063          0          0          0 
       340          0    18.6206    13.6187          0          0          0 
       341          0    20.9991    11.9714          0          0          0 
       342          0    21.2689    13.0471          0          0          0 
       343          0    22.0889    13.8245          0          0          0 
       344          0    22.2665    12.9299          0          0          0 
       345          0    20.4382    12.4436          0          0          0 
       346          0    20.9174    13.0435          0          0          0 
       347          0    15.3759    9.24363          0          0          0 
       348          0    14.2931    7.76364          0          0          0 
       349          0    14.8576    8.27803          0          0          0 
       350          0    16.3699    10.3065          0          0          0 
       351          0    12.5075     9.9373          0          0          0 
       352          0    14.8789    9.31357          0          0          0 
       353          0    15.9333    7.88292          0          0          0 
       354          0    16.4445    8.86343          0          0          0 
       355          0    16.3025    8.61351          0          0          0 
       356          0    16.3486    8.57694          0          0          0 
       357          0    17.2006    7.64116          0          0          0 
       358          0    16.3451    7.65323          0          0          0 
       359          0     15.099    6.33369          0          0          0 
       360          0    12.5004    4.54379          0          0          0 
       361          0     14.318     4.9563          0          0          0 
       362          0    14.5949    5.47034          0          0          0 
       363          0     14.634    4.68153          0          0          0 
       364          0    16.2953    5.87219          0          0          0 
       365          0    9.28481    5.77422          0          0          0 
end *** END OF INPUT FILE 'METEO.IN' **********************************
