Pcp_File_Version=4
*** BLOCK I: ATMOSPHERIC INFORMATION  **********************************
   MaxAL                    (MaxAL = number of atmospheric data-records)
    121
 DailyVar  SinusVar  lLay  lBCCycles lInterc lDummy  lDummy  lDummy  lDummy  lDummy
       f       f       f       f       f       f       f       f       f       f
 hCritS                 (max. allowed pressure head at the soil surface)
      0
       tAtm        Prec       rSoil       rRoot      hCritA          rB          hB          ht    RootDepth
          1           0      0.1962      0.1607      100000           0           0           0 
          2           0      0.1721    0.141375      100000           0           0           0 
          3           0      0.2017    0.163795      100000           0           0           0 
          4           0      0.1295    0.143635      100000           0           0           0 
          5           0      0.1379    0.160909      100000           0           0           0 
          6           0      0.1437    0.153588      100000           0           0           0 
          7           0      0.1477    0.166527      100000           0           0           0 
          8           0      0.1291    0.183471      100000           0           0           0 
          9           0      0.1476    0.177642      100000           0           0           0 
         10           0      0.1706     0.17139      100000           0           0           0 
         11           0      0.1994    0.192474      100000           0           0           0 
         12           0      0.2117    0.179103      100000           0           0           0 
         13           0      0.1727    0.157609      100000           0           0           0 
         14           0      0.1999    0.143934      100000           0           0           0 
         15           0      0.2136    0.150998      100000           0           0           0 
         16           0      0.2423    0.155209      100000           0           0           0 
         17           0      0.2493    0.155662      100000           0           0           0 
         18           0      0.2198    0.176054      100000           0           0           0 
         19         0.2      0.2002    0.179386      100000           0           0           0 
         20      2.4125      0.1165    0.124898      100000           0           0           0 
         21           0      0.1364    0.136379      100000           0           0           0 
         22           0      0.1734    0.162438      100000           0           0           0 
         23           0      0.2012    0.215109      100000           0           0           0 
         24           0      0.2181    0.219443      100000           0           0           0 
         25           0      0.2161    0.208823      100000           0           0           0 
         26           0       0.214    0.200434      100000           0           0           0 
         27           0      0.2368    0.191854      100000           0           0           0 
         28           0      0.1898    0.177779      100000           0           0           0 
         29           0      0.2274    0.170845      100000           0           0           0 
         30           0      0.2199      0.1546      100000           0           0           0 
         31           0      0.2533    0.158069      100000           0           0           0 
         32           0      0.2004    0.143572      100000           0           0           0 
         33           0      0.2113    0.166358      100000           0           0           0 
         34           0       0.218     0.16557      100000           0           0           0 
         35           0      0.1843    0.161145      100000           0           0           0 
         36           0       0.176    0.184168      100000           0           0           0 
         37           0      0.1992    0.191455      100000           0           0           0 
         38           0      0.1723    0.217421      100000           0           0           0 
         39           0      0.1862    0.208377      100000           0           0           0 
         40           0      0.1868    0.177216      100000           0           0           0 
         41           0      0.1781    0.159812      100000           0           0           0 
         42           0      0.2149    0.166553      100000           0           0           0 
         43           0       0.194    0.152363      100000           0           0           0 
         44           0      0.2016    0.155496      100000           0           0           0 
         45           0      0.2266    0.137941      100000           0           0           0 
         46           0      0.2408    0.147001      100000           0           0           0 
         47           0      0.2461    0.151668      100000           0           0           0 
         48           0      0.2406    0.170319      100000           0           0           0 
         49           0      0.2489    0.167782      100000           0           0           0 
         50           0      0.2283    0.188572      100000           0           0           0 
         51           0      0.2488     0.19782      100000           0           0           0 
         52           0      0.2415    0.208799      100000           0           0           0 
         53           0      0.2425    0.248413      100000           0           0           0 
         54           0      0.2443    0.233428      100000           0           0           0 
         55           0      0.1691    0.238096      100000           0           0           0 
         56           0      0.2343    0.212924      100000           0           0           0 
         57           0      0.2391    0.198926      100000           0           0           0 
         58           0      0.2268    0.186584      100000           0           0           0 
         59           0      0.2469    0.169874      100000           0           0           0 
         60           0      0.2489    0.155385      100000           0           0           0 
         61           0      0.2593    0.147754      100000           0           0           0 
         62           0      0.1643    0.146782      100000           0           0           0 
         63           0      0.1814    0.141787      100000           0           0           0 
         64           0      0.1867     0.14923      100000           0           0           0 
         65           0      0.1779    0.162232      100000           0           0           0 
         66           0      0.2008    0.153975      100000           0           0           0 
         67           0      0.1766    0.166233      100000           0           0           0 
         68           0      0.1812    0.157577      100000           0           0           0 
         69           0      0.2043    0.173157      100000           0           0           0 
         70           0      0.2482    0.180851      100000           0           0           0 
         71           0      0.2677    0.175272      100000           0           0           0 
         72           0       0.278    0.185574      100000           0           0           0 
         73           0       0.265    0.184374      100000           0           0           0 
         74           0      0.2967     0.18515      100000           0           0           0 
         75           0      0.3213    0.155251      100000           0           0           0 
         76           0      0.3394    0.154431      100000           0           0           0 
         77           0      0.3642    0.151792      100000           0           0           0 
         78           0      0.3315    0.160459      100000           0           0           0 
         79           0      0.3507    0.170771      100000           0           0           0 
         80           0      0.3579    0.195968      100000           0           0           0 
         81           0      0.3064     0.20953      100000           0           0           0 
         82           0      0.2909    0.220979      100000           0           0           0 
         83           0      0.3091    0.230964      100000           0           0           0 
         84           0      0.3459    0.244529      100000           0           0           0 
         85           0      0.3368    0.249306      100000           0           0           0 
         86           0      0.3645    0.208137      100000           0           0           0 
         87           0      0.2867     0.21399      100000           0           0           0 
         88           0      0.3314    0.191874      100000           0           0           0 
         89           0      0.3372    0.183344      100000           0           0           0 
         90           0      0.3673    0.154657      100000           0           0           0 
         91     4.08093      0.2665   0.0798833      100000           0           0           0 
         92      0.1016      0.2351    0.109391      100000           0           0           0 
         93           0       0.319    0.150879      100000           0           0           0 
         94           0      0.3071    0.159942      100000           0           0           0 
         95           0      0.3738    0.190954      100000           0           0           0 
         96           0      0.3427    0.212957      100000           0           0           0 
         97           0      0.3628    0.204334      100000           0           0           0 
         98           0      0.3431     0.21782      100000           0           0           0 
         99           0           0    0.231295      100000           0           0           0 
        100           0      0.3716    0.243724      100000           0           0           0 
        101           0      0.3887    0.203153      100000           0           0           0 
        102           0      0.3698    0.215285      100000           0           0           0 
        103           0      0.3568    0.198284      100000           0           0           0 
        104           0      0.3215    0.186829      100000           0           0           0 
        105           0      0.4025    0.166904      100000           0           0           0 
        106           0       0.389     0.16147      100000           0           0           0 
        107           0      0.4462    0.158859      100000           0           0           0 
        108           0      0.3809      0.1672      100000           0           0           0 
        109           0      0.4158    0.180763      100000           0           0           0 
        110           0      0.4276    0.178366      100000           0           0           0 
        111           0      0.4218    0.197909      100000           0           0           0 
        112           0      0.4415     0.21249      100000           0           0           0 
        113           0       0.438    0.211086      100000           0           0           0 
        114           0      0.4807    0.238995      100000           0           0           0 
        115           0      0.4608    0.244232      100000           0           0           0 
        116           0      0.3969    0.247573      100000           0           0           0 
        117           0      0.3642    0.195784      100000           0           0           0 
        118           0      0.4242    0.210065      100000           0           0           0 
        119           0      0.4788    0.190324      100000           0           0           0 
        120           0      0.4365    0.183266      100000           0           0           0 
        121           0      0.4568    0.162537      100000           0           0           0 
end*** END OF INPUT FILE 'ATMOSPH.IN' **********************************
