Pcp_File_Version=4
*** BLOCK I: ATMOSPHERIC INFORMATION  **********************************
   MaxAL                    (MaxAL = number of atmospheric data-records)
     120
 DailyVar  SinusVar  lLay  lBCCycles lInterc lDummy  lDummy  lDummy  lDummy  lDummy
       f       f       f       f       f       f       f       f       f       f
 hCritS                 (max. allowed pressure head at the soil surface)
      0
   tAtm   Prec   rSoil   rRoot   hCritA   rB   hB   ht   RootDepth
   1   0.997434619033   0.797726849757   0.760560090269   100000   0   0   0
   2   0.773876498706   0.691178516168   0.437134547247   100000   0   0   0
   3   0.132639351873   0.645379418748   0.421999751764   100000   0   0   0
   4   0.236070373503   0.475473090665   0.498740991832   100000   0   0   0
   5   0.373568497958   0.153357385109   0.694069698551   100000   0   0   0
   6   0.845695673539   0.41942763525   0.344637952816   100000   0   0   0
   7   0.978955874902   0.458520752314   0.731552619572   100000   0   0   0
   8   0.488902964996   0.398705652961   0.84928640937   100000   0   0   0
   9   0.965759367968   0.402758309808   0.0250872030545   100000   0   0   0
   10   0.059548761118   0.926902486626   0.675519989048   100000   0   0   0
   11   0.450099419752   0.108698020839   0.492741371134   100000   0   0   0
   12   0.680661759034   0.802907080301   0.835156153154   100000   0   0   0
   13   0.174094532497   0.929192071057   0.153809066067   100000   0   0   0
   14   0.954130458637   0.495816195252   0.796240444579   100000   0   0   0
   15   0.3615429791   0.574111286263   0.429964448768   100000   0   0   0
   16   0.411909601934   0.673997840014   0.480491585602   100000   0   0   0
   17   0.972072234618   0.550052460037   0.340112589392   100000   0   0   0
   18   0.605127794527   0.568150798242   0.175049355894   100000   0   0   0
   19   0.847038581623   0.705390550021   0.729535073723   100000   0   0   0
   20   0.215803313012   0.284428713726   0.726582430986   100000   0   0   0
   21   0.388732918318   0.815399160988   0.644468314262   100000   0   0   0
   22   0.89436014484   0.675646973544   0.936358590681   100000   0   0   0
   23   0.0537855535923   0.265093335281   0.635956254136   100000   0   0   0
   24   0.613875334298   0.620568735379   0.676054622852   100000   0   0   0
   25   0.384029137582   0.374434889222   0.243961860893   100000   0   0   0
   26   0.321474922838   0.245643237723   0.799212407009   100000   0   0   0
   27   0.880706090399   0.0883614022428   0.592603393636   100000   0   0   0
   28   0.626383907275   0.833808941056   0.221972768948   100000   0   0   0
   29   0.402609584331   0.108697104502   0.0032893191701   100000   0   0   0
   30   0.875229469532   0.561469944994   0.800999051371   100000   0   0   0
   31   0.656130490561   0.814423734157   0.580033560836   100000   0   0   0
   32   0.894241395374   0.34075762196   0.466189564931   100000   0   0   0
   33   0.182842689985   0.690673637511   0.414040762249   100000   0   0   0
   34   0.307157275582   0.257034148219   0.637780876318   100000   0   0   0
   35   0.554908445393   0.438624643548   0.755840280244   100000   0   0   0
   36   0.564877733321   0.521640721795   0.114532434252   100000   0   0   0
   37   0.276566102351   0.450045427889   0.578548752817   100000   0   0   0
   38   0.634241390644   0.806946589798   0.0975281194666   100000   0   0   0
   39   0.0708635049127   0.928872983863   0.723989403266   100000   0   0   0
   40   0.769959880436   0.538005188218   0.629204837301   100000   0   0   0
   41   0.513519698902   0.71949596086   0.602315120799   100000   0   0   0
   42   0.782319685352   0.485823525449   0.994761525206   100000   0   0   0
   43   0.711579106376   0.525769178512   0.280444802426   100000   0   0   0
   44   0.644539919772   0.315086461802   0.719016788501   100000   0   0   0
   45   0.256759846238   0.874648413817   0.912780528373   100000   0   0   0
   46   0.704230794126   0.425584499922   0.193987916953   100000   0   0   0
   47   0.520920052065   0.46844976349   0.98308016394   100000   0   0   0
   48   0.698840336977   0.52829892421   0.142220898693   100000   0   0   0
   49   0.00844800120349   0.643567540408   0.372842967134   100000   0   0   0
   50   0.180308860099   0.0475599242654   0.541327327904   100000   0   0   0
   51   0.443489881191   0.527541202819   0.790510473493   100000   0   0   0
   52   0.0698480847033   0.729499904734   0.293299681436   100000   0   0   0
   53   0.251450703856   0.834655489548   0.0675124131515   100000   0   0   0
   54   0.373633474907   0.0921137903631   0.135485163017   100000   0   0   0
   55   0.841873542884   0.351287147017   0.162793997174   100000   0   0   0
   56   0.970340249809   0.631289079002   0.846846717943   100000   0   0   0
   57   0.262072978087   0.91100218411   0.25107303244   100000   0   0   0
   58   0.404846936422   0.308665085527   0.608125494288   100000   0   0   0
   59   0.931361766425   0.550921307393   0.260539433002   100000   0   0   0
   60   0.244860462848   0.0468229952026   0.184251341201   100000   0   0   0
   61   0.332859211958   0.904618645907   0.267818250854   100000   0   0   0
   62   0.876830058143   0.578427963695   0.490813332476   100000   0   0   0
   63   0.293229260452   0.64659646089   0.936074876669   100000   0   0   0
   64   0.224830983594   0.9792806735   0.16480214872   100000   0   0   0
   65   0.606561488594   0.987427357809   0.146903337624   100000   0   0   0
   66   0.851604957708   0.807480062197   0.386940861396   100000   0   0   0
   67   0.19406430887   0.867397311327   0.179290580339   100000   0   0   0
   68   0.752906413661   0.526337662074   0.565785916255   100000   0   0   0
   69   0.0346433689125   0.681799325756   0.0556671785246   100000   0   0   0
   70   0.515417108445   0.835744857996   0.260912899161   100000   0   0   0
   71   0.580458019678   0.373902142459   0.273186741084   100000   0   0   0
   72   0.677542529687   0.285365881974   0.272894278539   100000   0   0   0
   73   0.252563066409   0.300833354396   0.0952336813434   100000   0   0   0
   74   0.00861639521267   0.756629963192   0.244132681573   100000   0   0   0
   75   0.142278841839   0.284845880501   0.901822877651   100000   0   0   0
   76   0.151904171327   0.777155197693   0.149234644644   100000   0   0   0
   77   0.808971607685   0.016624314666   0.205902945108   100000   0   0   0
   78   0.940787598955   0.453927700901   0.767111785824   100000   0   0   0
   79   0.197713075438   0.848413746246   0.820880084361   100000   0   0   0
   80   0.995459089439   0.697671536553   0.540675127564   100000   0   0   0
   81   0.04319577977   0.525024671511   0.435774316243   100000   0   0   0
   82   0.0370299674928   0.194370658109   0.447363135311   100000   0   0   0
   83   0.0992891211509   0.154437897413   0.498916241746   100000   0   0   0
   84   0.274178061405   0.91933006451   0.195076849367   100000   0   0   0
   85   0.694674620858   0.618720062603   0.171583681023   100000   0   0   0
   86   0.608263838536   0.0338973883689   0.459375741284   100000   0   0   0
   87   0.00928113030584   0.355416560608   0.180656754826   100000   0   0   0
   88   0.875210822937   0.289446319909   0.058817272118   100000   0   0   0
   89   0.758207593682   0.606867279304   0.740926156064   100000   0   0   0
   90   0.548045994696   0.209390558115   0.362265849342   100000   0   0   0
   91   0.24564076063   0.580107586379   0.280196089495   100000   0   0   0
   92   0.923679195774   0.307273846365   0.718590341532   100000   0   0   0
   93   0.402211639635   0.0825155596739   0.666262595689   100000   0   0   0
   94   0.794567606403   0.269604133794   0.900351953143   100000   0   0   0
   95   0.736999963955   0.639712611492   0.615812903453   100000   0   0   0
   96   0.869265489004   0.366771491305   0.479685094711   100000   0   0   0
   97   0.974559881267   0.657451955756   0.871923859047   100000   0   0   0
   98   0.844533604602   0.499449927808   0.726330497672   100000   0   0   0
   99   0.277538029495   0.628529284405   0.952872692341   100000   0   0   0
   100   0.954266875161   0.376012576828   0.930774120397   100000   0   0   0
   101   0.320601993363   0.85208329601   0.360359510387   100000   0   0   0
   102   0.0568343169657   0.271903942771   0.728371579029   100000   0   0   0
   103   0.0853789419329   0.310532183822   0.39142689572   100000   0   0   0
   104   0.245231411673   0.239189705709   0.309172068967   100000   0   0   0
   105   0.263138214135   0.211888539588   0.999684663405   100000   0   0   0
   106   0.365740430585   0.0645536736229   0.650902049919   100000   0   0   0
   107   0.420026704337   0.0490513260351   0.401973411283   100000   0   0   0
   108   0.373510987306   0.805619154826   0.649276670374   100000   0   0   0
   109   0.681337199381   0.753573913209   0.231036682924   100000   0   0   0
   110   0.658932729717   0.176790365595   0.624015367303   100000   0   0   0
   111   0.695712471141   0.0981981449115   0.922146266894   100000   0   0   0
   112   0.373606974243   0.108038327183   0.887286734199   100000   0   0   0
   113   0.278538488441   0.37809470511   0.542636698344   100000   0   0   0
   114   0.828023875174   0.970228611951   0.727281044316   100000   0   0   0
   115   0.337454598592   0.766277999244   0.127933094423   100000   0   0   0
   116   0.0982050348098   0.483049316584   0.96926639198   100000   0   0   0
   117   0.569464422612   0.992338933638   0.596775322633   100000   0   0   0
   118   0.909432401224   0.779853238883   0.771956868284   100000   0   0   0
   119   0.438374682088   0.53830637068   0.05984330918   100000   0   0   0
   120   0.87056025192   0.952128794561   0.221570821045   100000   0   0   0
end*** END OF INPUT FILE 'ATMOSPH.IN' **********************************