Pcp_File_Version=4
*** BLOCK I: ATMOSPHERIC INFORMATION  **********************************
   MaxAL                    (MaxAL = number of atmospheric data-records)
     50
 DailyVar  SinusVar  lLay  lBCCycles lInterc lDummy  lDummy  lDummy  lDummy  lDummy
       f       f       f       f       f       f       f       f       f       f
 hCritS                 (max. allowed pressure head at the soil surface)
      0
   tAtm   Prec   rSoil   rRoot   hCritA   rB   hB   ht   RootDepth
   1   0.415112506878   0.0895881956934   0.0400374045592   100000   0   0   0
   2   0.777133835674   0.584546188305   0.802980351972   100000   0   0   0
   3   0.776820595169   0.425905641085   0.940189373822   100000   0   0   0
   4   0.394175975111   0.405431504238   0.442614487602   100000   0   0   0
   5   0.837390129702   0.675058482653   0.524244529746   100000   0   0   0
   6   0.893840980383   0.130326429889   0.123180132481   100000   0   0   0
   7   0.645334753071   0.521017382065   0.196909890182   100000   0   0   0
   8   0.420437803057   0.204116467371   0.420334462817   100000   0   0   0
   9   0.178485623976   0.0280588408781   0.792447664929   100000   0   0   0
   10   0.988539518755   0.238234701564   0.512821803494   100000   0   0   0
   11   0.175488435844   0.599652877683   0.988822891319   100000   0   0   0
   12   0.348239235293   0.202066364648   0.773539045383   100000   0   0   0
   13   0.165718711257   0.823928864657   0.576601969977   100000   0   0   0
   14   0.527060151892   0.97691090505   0.51712302044   100000   0   0   0
   15   0.731074869572   0.818855588756   0.304932444994   100000   0   0   0
   16   0.583011711435   0.235395959453   0.106208021203   100000   0   0   0
   17   0.597146716241   0.161320724541   0.551966715004   100000   0   0   0
   18   0.666097407166   0.734469535352   0.617741159968   100000   0   0   0
   19   0.0710696405107   0.202329853544   0.562610256272   100000   0   0   0
   20   0.621493717901   0.0506222457859   0.0906563181155   100000   0   0   0
   21   0.987191441872   0.136872996866   0.378723796141   100000   0   0   0
   22   0.313647958846   0.500983548347   0.494488476937   100000   0   0   0
   23   0.477118446243   0.658164734788   0.715766417816   100000   0   0   0
   24   0.2864366502   0.861082017183   0.0614913738621   100000   0   0   0
   25   0.96100576357   0.501434495864   0.555697995624   100000   0   0   0
   26   0.776924967427   0.647763607808   0.570372426261   100000   0   0   0
   27   0.199335871362   0.0967454684334   0.994634854785   100000   0   0   0
   28   0.634478331127   0.477495173701   0.513871185284   100000   0   0   0
   29   0.706210200593   0.907360616993   0.287044998435   100000   0   0   0
   30   0.444676532313   0.154492472057   0.964791069247   100000   0   0   0
   31   0.733512079138   0.50702889273   0.319360264191   100000   0   0   0
   32   0.136770467899   0.402051988942   0.231884716851   100000   0   0   0
   33   0.749982320765   0.858517026891   0.752300134053   100000   0   0   0
   34   0.98142753437   0.457053364674   0.551842873276   100000   0   0   0
   35   0.939599726315   0.755330983222   0.00209267918233   100000   0   0   0
   36   0.830012227617   0.668736798875   0.0282235821518   100000   0   0   0
   37   0.796354461248   0.618780101119   0.333384912138   100000   0   0   0
   38   0.714452868352   0.897783669219   0.0647445701889   100000   0   0   0
   39   0.148000757254   0.220654046473   0.942002070028   100000   0   0   0
   40   0.963480162701   0.492957669179   0.862726706374   100000   0   0   0
   41   0.190705479856   0.661628627558   0.0388459830108   100000   0   0   0
   42   0.472571058232   0.930108162395   0.00706846539385   100000   0   0   0
   43   0.670388395895   0.0728516542912   0.439721394094   100000   0   0   0
   44   0.848804509782   0.543777187401   0.757920284265   100000   0   0   0
   45   0.272193028308   0.474586530299   0.576253649705   100000   0   0   0
   46   0.947524518898   0.214972486308   0.629795879753   100000   0   0   0
   47   0.40220310182   0.214027215605   0.558663921497   100000   0   0   0
   48   0.694236225883   0.478227868676   0.437764008467   100000   0   0   0
   49   0.638687600365   0.816866234868   0.225012411837   100000   0   0   0
   50   0.538300840599   0.218276343878   0.14785921346   100000   0   0   0
end*** END OF INPUT FILE 'ATMOSPH.IN' **********************************