Pcp_File_Version=4
*** BLOCK I: ATMOSPHERIC INFORMATION  **********************************
   MaxAL                    (MaxAL = number of atmospheric data-records)
     90
 DailyVar  SinusVar  lLay  lBCCycles lInterc lDummy  lDummy  lDummy  lDummy  lDummy
       f       f       f       f       f       f       f       f       f       f
 hCritS                 (max. allowed pressure head at the soil surface)
      0
   tAtm   Prec   rSoil   rRoot   hCritA   rB   hB   ht   RootDepth
   1   0.136770467899   0.402051988942   0.231884716851   100000   0   0   0
   2   0.749982320765   0.858517026891   0.752300134053   100000   0   0   0
   3   0.98142753437   0.457053364674   0.551842873276   100000   0   0   0
   4   0.939599726315   0.755330983222   0.00209267918233   100000   0   0   0
   5   0.830012227617   0.668736798875   0.0282235821518   100000   0   0   0
   6   0.796354461248   0.618780101119   0.333384912138   100000   0   0   0
   7   0.714452868352   0.897783669219   0.0647445701889   100000   0   0   0
   8   0.148000757254   0.220654046473   0.942002070028   100000   0   0   0
   9   0.963480162701   0.492957669179   0.862726706374   100000   0   0   0
   10   0.190705479856   0.661628627558   0.0388459830108   100000   0   0   0
   11   0.472571058232   0.930108162395   0.00706846539385   100000   0   0   0
   12   0.670388395895   0.0728516542912   0.439721394094   100000   0   0   0
   13   0.848804509782   0.543777187401   0.757920284265   100000   0   0   0
   14   0.272193028308   0.474586530299   0.576253649705   100000   0   0   0
   15   0.947524518898   0.214972486308   0.629795879753   100000   0   0   0
   16   0.40220310182   0.214027215605   0.558663921497   100000   0   0   0
   17   0.694236225883   0.478227868676   0.437764008467   100000   0   0   0
   18   0.638687600365   0.816866234868   0.225012411837   100000   0   0   0
   19   0.538300840599   0.218276343878   0.14785921346   100000   0   0   0
   20   0.439220868497   0.85626591208   0.280761608449   100000   0   0   0
   21   0.427240593899   0.141232101625   0.14027700295   100000   0   0   0
   22   0.386762877071   0.110668427811   0.0267465369924   100000   0   0   0
   23   0.741530315149   0.147745884925   0.0545550630154   100000   0   0   0
   24   0.566405754878   0.192252912927   0.509239518424   100000   0   0   0
   25   0.511288399169   0.75716615223   0.922899139313   100000   0   0   0
   26   0.0176416719542   0.400567367714   0.444026877896   100000   0   0   0
   27   0.854019961764   0.0625859974944   0.0792395481342   100000   0   0   0
   28   0.799436906072   0.657401649892   0.694116967024   100000   0   0   0
   29   0.311792533578   0.510296506761   0.694673386878   100000   0   0   0
   30   0.454704385253   0.162966038644   0.692363230681   100000   0   0   0
   31   0.135072764297   0.282129298473   0.559675434739   100000   0   0   0
   32   0.513850101638   0.92397627134   0.586771231923   100000   0   0   0
   33   0.996374762961   0.777560401218   0.0722009544942   100000   0   0   0
   34   0.527039289952   0.864467600775   0.818792032822   100000   0   0   0
   35   0.766205345892   0.513667683339   0.818503444479   100000   0   0   0
   36   0.943279253094   0.98917106032   0.389676637849   100000   0   0   0
   37   0.120277896277   0.388812320823   0.968756868648   100000   0   0   0
   38   0.682327182213   0.376301376594   0.939873582292   100000   0   0   0
   39   0.77682276046   0.392127437733   0.829909162029   100000   0   0   0
   40   0.82269180089   0.881029251417   0.652391149992   100000   0   0   0
   41   0.991990063752   0.274072478345   0.444710663401   100000   0   0   0
   42   0.998284213501   0.995295212784   0.965928394268   100000   0   0   0
   43   0.118861277523   0.189388732687   0.379826524897   100000   0   0   0
   44   0.755292449103   0.0476786189027   0.500299141739   100000   0   0   0
   45   0.0590648686202   0.47804067335   0.845965183529   100000   0   0   0
   46   0.752300306237   0.952801152945   0.58451002405   100000   0   0   0
   47   0.620363903439   0.517108776462   0.681865888614   100000   0   0   0
   48   0.719857237941   0.323180533691   0.122167300906   100000   0   0   0
   49   0.175227433144   0.0710411207728   0.904093970088   100000   0   0   0
   50   0.572881179611   0.385620575968   0.166685801827   100000   0   0   0
   51   0.258351861705   0.0797616556587   0.753941478006   100000   0   0   0
   52   0.778631807303   0.199959457998   0.551599786471   100000   0   0   0
   53   0.115478113756   0.370478003326   0.80274523914   100000   0   0   0
   54   0.285187608856   0.307927811682   0.454468713498   100000   0   0   0
   55   0.635221824473   0.43906682413   0.436035799425   100000   0   0   0
   56   0.770760921955   0.311533314243   0.886425635894   100000   0   0   0
   57   0.0685665435125   0.469319158731   0.886661560605   100000   0   0   0
   58   0.257892849469   0.424383282375   0.410733417759   100000   0   0   0
   59   0.366486130341   0.378871706288   0.193460518245   100000   0   0   0
   60   0.0161768131759   0.730328527811   0.0249025537915   100000   0   0   0
   61   0.0200942934785   0.0911178910752   0.418084766471   100000   0   0   0
   62   0.650819194964   0.311434736967   0.320341665616   100000   0   0   0
   63   0.355988521581   0.186113295108   0.476852585707   100000   0   0   0
   64   0.027060463575   0.55156002293   0.797057208905   100000   0   0   0
   65   0.274235237023   0.784495030845   0.521663680726   100000   0   0   0
   66   0.466034383567   0.792704305677   0.133587902436   100000   0   0   0
   67   0.522037991452   0.654578094521   0.92470409245   100000   0   0   0
   68   0.884874098373   0.289836846426   0.949343581947   100000   0   0   0
   69   0.16290311103   0.903945662931   0.251836095796   100000   0   0   0
   70   0.839191906262   0.206938937322   0.232416098937   100000   0   0   0
   71   0.424801241063   0.34269186607   0.693371190019   100000   0   0   0
   72   0.318424000122   0.226258898366   0.707863514054   100000   0   0   0
   73   0.578179147473   0.075972168966   0.0484409173634   100000   0   0   0
   74   0.603469535453   0.494470816347   0.452592694107   100000   0   0   0
   75   0.231617209057   0.11463896161   0.590998211602   100000   0   0   0
   76   0.467670514407   0.457441846698   0.970184415812   100000   0   0   0
   77   0.668368243779   0.950628504181   0.501406636613   100000   0   0   0
   78   0.715661767001   0.583776105307   0.79144738984   100000   0   0   0
   79   0.950237701447   0.859832436905   0.410316063496   100000   0   0   0
   80   0.156018871628   0.982075371794   0.340050701669   100000   0   0   0
   81   0.411121404433   0.434418413015   0.0250261650872   100000   0   0   0
   82   0.337097881647   0.874666135196   0.0252563510287   100000   0   0   0
   83   0.31976961127   0.242746430496   0.507420724894   100000   0   0   0
   84   0.776977380578   0.448049307924   0.505335017198   100000   0   0   0
   85   0.190264292581   0.445611478353   0.366614129177   100000   0   0   0
   86   0.94699906532   0.933991446312   0.202373416459   100000   0   0   0
   87   0.0837696591391   0.732647477943   0.574579771566   100000   0   0   0
   88   0.122808968044   0.600125130232   0.0354401702615   100000   0   0   0
   89   0.174091189193   0.629815443055   0.8056404755   100000   0   0   0
   90   0.485774642325   0.841657581129   0.412028311414   100000   0   0   0
end*** END OF INPUT FILE 'ATMOSPH.IN' **********************************