Pcp_File_Version=4
*** BLOCK I: ATMOSPHERIC INFORMATION  **********************************
   MaxAL                    (MaxAL = number of atmospheric data-records)
     30
 DailyVar  SinusVar  lLay  lBCCycles lInterc lDummy  lDummy  lDummy  lDummy  lDummy
       f       f       f       f       f       f       f       f       f       f
 hCritS                 (max. allowed pressure head at the soil surface)
      0
   tAtm   Prec   rSoil   rRoot   hCritA   rB   hB   ht   RootDepth
   1   0.0   0.369   0.309034   100000   0   0   0
   2   0.0   0.2602   0.233191   100000   0   0   0
   3   0.0   0.3104   0.257971   100000   0   0   0
   4   0.0   0.3578   0.327654   100000   0   0   0
   5   0.0   0.3332   0.361451   100000   0   0   0
   6   0.0   0.3749   0.411018   100000   0   0   0
   7   0.0   0.4259   0.474279   100000   0   0   0
   8   0.0   0.4591   0.581241   100000   0   0   0
   9   0.0   0.4479   0.592778   100000   0   0   0
   10   0.0   0.4956   0.618538   100000   0   0   0
   11   0.0   0.4384   0.53194   100000   0   0   0
   12   0.0   0.4174   0.488407   100000   0   0   0
   13   0.0   0.4254   0.410641   100000   0   0   0
   14   0.0   0.386   0.388264   100000   0   0   0
   15   0.0   0.4279   0.372877   100000   0   0   0
   16   0.0   0.457   0.388786   100000   0   0   0
   17   0.0   0.4946   0.407633   100000   0   0   0
   18   0.0   0.3414   0.360474   100000   0   0   0
   19   0.0   0.3599   0.363949   100000   0   0   0
   20   0.0   0.4601   0.447945   100000   0   0   0
   21   0.0   0.4732   0.524134   100000   0   0   0
   22   0.0   0.4661   0.513478   100000   0   0   0
   23   0.0   0.4313   0.534352   100000   0   0   0
   24   0.0   0.4553   0.571862   100000   0   0   0
   25   0.0   0.4872   0.574582   100000   0   0   0
   26   0.0338667   0.3014   0.314981   100000   0   0   0
   27   0.0   0.407   0.377129   100000   0   0   0
   28   0.0   0.4818   0.407443   100000   0   0   0
   29   0.0   0.3695   0.425984   100000   0   0   0
   30   0.0   0.4189   0.361126   100000   0   0   0
end*** END OF INPUT FILE 'ATMOSPH.IN' **********************************