Pcp_File_Version=4
*** BLOCK I: ATMOSPHERIC INFORMATION  **********************************
   MaxAL                    (MaxAL = number of atmospheric data-records)
     31
 DailyVar  SinusVar  lLay  lBCCycles lInterc lDummy  lDummy  lDummy  lDummy  lDummy
       f       f       f       f       f       f       f       f       f       f
 hCritS                 (max. allowed pressure head at the soil surface)
      0
   tAtm   Prec   rSoil   rRoot   hCritA   rB   hB   ht   RootDepth
   1   0.656972462152   0.13373045164   0.150290801551   100000   0   0   0
   2   0.26207157394   0.384874083657   0.604898737375   100000   0   0   0
   3   0.866142376246   0.345246749686   0.22334598473   100000   0   0   0
   4   0.430806994724   0.880796006885   0.947112921372   100000   0   0   0
   5   0.616490623994   0.862477456493   0.222741500247   100000   0   0   0
   6   0.388910939856   0.640107523346   0.895820830371   100000   0   0   0
   7   0.8343980393   0.602113445352   0.264080293089   100000   0   0   0
   8   0.134278238435   0.815229022403   0.700151079192   100000   0   0   0
   9   0.767257520766   0.103984855505   0.0936754569192   100000   0   0   0
   10   0.644375637241   0.459801751824   0.678202445235   100000   0   0   0
   11   0.0535653738119   0.516093292925   0.24791821141   100000   0   0   0
   12   0.335307184137   0.385627427375   0.816088628805   100000   0   0   0
   13   0.186036922953   0.747913022477   0.0236011047606   100000   0   0   0
   14   0.436385906039   0.805592347415   0.296065026059   100000   0   0   0
   15   0.992828663818   0.00843841546612   0.0845384512099   100000   0   0   0
   16   0.0703973111149   0.467923680496   0.476715882419   100000   0   0   0
   17   0.0105466023383   0.115551878064   0.192835039335   100000   0   0   0
   18   0.969812381069   0.952081776167   0.0378685264868   100000   0   0   0
   19   0.589585182728   0.537247767471   0.158433980062   100000   0   0   0
   20   0.278945071274   0.119011472994   0.957123630027   100000   0   0   0
   21   0.354285871736   0.186509635398   0.608898549159   100000   0   0   0
   22   0.236329372186   0.762214692389   0.190671148524   100000   0   0   0
   23   0.0182015014806   0.0384867816594   0.270086310817   100000   0   0   0
   24   0.129344554603   0.484675183543   0.240262628495   100000   0   0   0
   25   0.451149229334   0.716298880019   0.558681016172   100000   0   0   0
   26   0.461885142662   0.435602781956   0.123041279292   100000   0   0   0
   27   0.364317441234   0.256488071891   0.674366050869   100000   0   0   0
   28   0.0440943324899   0.674853017105   0.890868003873   100000   0   0   0
   29   0.66385983187   0.462595165077   0.509396873904   100000   0   0   0
   30   0.303574142647   0.639419858435   0.05937510193   100000   0   0   0
   31   0.634309853991   0.347454299883   0.278279557254   100000   0   0   0
end*** END OF INPUT FILE 'ATMOSPH.IN' **********************************